16
Sodium Chloride crystal structure
Na 0.000 0.000 0.000
Cl 0.500 0.500 0.000
Na 0.500 0.000 0.500
Cl 0.000 0.500 0.500
Na 1.000 1.000 0.000
Cl 1.500 1.500 0.000
Na 1.500 1.000 0.500
Cl 1.000 1.500 0.500
Na 1.000 0.000 1.000
Cl 1.500 0.500 1.000
Na 1.500 0.000 1.500
Cl 1.000 0.500 1.500
Na 0.000 1.000 1.000
Cl 0.500 1.500 1.000
Na 0.500 1.000 1.500
Cl 0.000 1.500 1.500
